[TITLE]
;;Project Title/Notes

[OPTIONS]
;;Option             Value
FLOW_UNITS           CFS
INFILTRATION         HORTON
FLOW_ROUTING         DYNWAVE
LINK_OFFSETS         DEPTH
MIN_SLOPE            0
ALLOW_PONDING        NO
SKIP_STEADY_STATE    NO

START_DATE           06/01/2021
START_TIME           00:00:00
REPORT_START_DATE    06/01/2021
REPORT_START_TIME    00:00:00
END_DATE             06/02/2021
END_TIME             06:00:00
SWEEP_START          01/01
SWEEP_END            12/31
DRY_DAYS             0
REPORT_STEP          00:15:00
WET_STEP             00:05:00
DRY_STEP             00:15:00
ROUTING_STEP         0:00:2.5 
RULE_STEP            00:00:00

INERTIAL_DAMPING     PARTIAL
NORMAL_FLOW_LIMITED  BOTH
FORCE_MAIN_EQUATION  H-W
VARIABLE_STEP        0.75
LENGTHENING_STEP     0
MIN_SURFAREA         1.167
MAX_TRIALS           8
HEAD_TOLERANCE       0.0015
SYS_FLOW_TOL         5
LAT_FLOW_TOL         5
MINIMUM_STEP         0.5
THREADS              1

[EVAPORATION]
;;Data Source    Parameters
;;-------------- ----------------
CONSTANT         5
DRY_ONLY         NO

;;Data Element     Values     

[RAINGAGES]
;;Name           Format    Interval SCF      Source
;;-------------- --------- ------ ------ ----------
1                VOLUME    0:01     1.0      TIMESERIES hydrograph

[SUBCATCHMENTS]
;;Name           Rain Gage        Outlet           Area     %Imperv  Width    %Slope   CurbLen  SnowPack      
;;-------------- ---------------- ---------------- -------- -------- -------- -------- -------- ----------------
SC0              1                0                2        60       5        0.5      0                
SC1              1                1                2        60       5        0.5      0                
SC2              1                2                2        60       5        0.5      0                
SC3              1                3                2        60       5        0.5      0                
SC4              1                4                2        60       5        0.5      0                
SC5              1                5                2        60       5        0.5      0                
SC6              1                6                2        60       5        0.5      0                
SC7              1                7                2        60       5        0.5      0                
SC8              1                8                2        60       5        0.5      0                
SC9              1                9                2        60       5        0.5      0                
SC10             1                10               2        60       5        0.5      0                
SC11             1                11               2        60       5        0.5      0                
SC12             1                12               2        60       5        0.5      0                
SC13             1                13               2        60       5        0.5      0                
SC14             1                14               2        60       5        0.5      0                
SC15             1                15               2        60       5        0.5      0                
SC16             1                16               2        60       5        0.5      0                
SC17             1                17               2        60       5        0.5      0                
SC18             1                18               2        60       5        0.5      0                
SC19             1                19               2        60       5        0.5      0                
SC20             1                20               2        60       5        0.5      0                
SC22             1                22               2        60       5        0.5      0                
SC23             1                23               2        60       5        0.5      0                
SC24             1                24               2        60       5        0.5      0                
SC25             1                25               2        60       5        0.5      0                
SC26             1                26               2        60       5        0.5      0                
SC27             1                27               2        60       5        0.5      0                
SC28             1                28               2        60       5        0.5      0                
SC29             1                29               2        60       5        0.5      0                
SC30             1                30               2        60       5        0.5      0                
SC31             1                31               2        60       5        0.5      0                
SC32             1                32               2        60       5        0.5      0                
SC33             1                33               2        60       5        0.5      0                
SC34             1                34               2        60       5        0.5      0                
SC35             1                35               2        60       5        0.5      0                
SC36             1                36               2        60       5        0.5      0                
SC37             1                37               2        60       5        0.5      0                
SC38             1                38               2        60       5        0.5      0                
SC39             1                39               2        60       5        0.5      0                
SC40             1                40               2        60       5        0.5      0                
SC41             1                41               2        60       5        0.5      0                
SC42             1                42               2        60       5        0.5      0                
SC43             1                43               2        60       5        0.5      0                
SC44             1                44               2        60       5        0.5      0                
SC45             1                45               2        60       5        0.5      0                
SC46             1                46               2        60       5        0.5      0                
SC47             1                47               2        60       5        0.5      0                
SC48             1                48               2        60       5        0.5      0                
SC49             1                49               2        60       5        0.5      0                
SC50             1                50               2        60       5        0.5      0                
SC51             1                51               2        60       5        0.5      0                
SC52             1                52               2        60       5        0.5      0                
SC53             1                53               2        60       5        0.5      0                
SC54             1                54               2        60       5        0.5      0                
SC55             1                55               2        60       5        0.5      0                
SC56             1                56               2        60       5        0.5      0                
SC57             1                57               2        60       5        0.5      0                
SC58             1                58               2        60       5        0.5      0                
SC59             1                59               2        60       5        0.5      0                
SC60             1                60               2        60       5        0.5      0                
SC61             1                61               2        60       5        0.5      0                
SC62             1                62               2        60       5        0.5      0                
SC63             1                63               2        60       5        0.5      0                
SC64             1                64               2        60       5        0.5      0                
SC65             1                65               2        60       5        0.5      0                
SC66             1                66               2        60       5        0.5      0                
SC67             1                67               2        60       5        0.5      0                
SC68             1                68               2        60       5        0.5      0                
SC69             1                69               2        60       5        0.5      0                
SC70             1                70               2        60       5        0.5      0                
SC71             1                71               2        60       5        0.5      0                
SC72             1                72               2        60       5        0.5      0                
SC73             1                73               2        60       5        0.5      0                
SC74             1                74               2        60       5        0.5      0                
SC75             1                75               2        60       5        0.5      0                
SC76             1                76               2        60       5        0.5      0                
SC77             1                77               2        60       5        0.5      0                
SC78             1                78               2        60       5        0.5      0                
SC79             1                79               2        60       5        0.5      0                
SC80             1                80               2        60       5        0.5      0                
SC81             1                81               2        60       5        0.5      0                
SC82             1                82               2        60       5        0.5      0                
SC83             1                83               2        60       5        0.5      0                
SC84             1                84               2        60       5        0.5      0                
SC85             1                85               2        60       5        0.5      0                
SC86             1                86               2        60       5        0.5      0                
SC87             1                87               2        60       5        0.5      0                
SC88             1                88               2        60       5        0.5      0                
SC89             1                89               2        60       5        0.5      0                
SC90             1                90               2        60       5        0.5      0                
SC91             1                91               2        60       5        0.5      0                
SC92             1                92               2        60       5        0.5      0                
SC93             1                93               2        60       5        0.5      0                
SC94             1                94               2        60       5        0.5      0                
SC95             1                95               2        60       5        0.5      0                
SC96             1                96               2        60       5        0.5      0                
SC97             1                97               2        60       5        0.5      0                
SC98             1                98               2        60       5        0.5      0                
SC99             1                99               2        60       5        0.5      0                


[SUBAREAS]
;;Subcatchment   N-Imperv   N-Perv     S-Imperv   S-Perv     PctZero    RouteTo    PctRouted 
;;-------------- ---------- ---------- ---------- ---------- ---------- ---------- ----------
SC0              0.014      0.2        0.02       0.1        25         OUTLET    
SC1              0.014      0.2        0.02       0.1        25         OUTLET    
SC2              0.014      0.2        0.02       0.1        25         OUTLET    
SC3              0.014      0.2        0.02       0.1        25         OUTLET    
SC4              0.014      0.2        0.02       0.1        25         OUTLET    
SC5              0.014      0.2        0.02       0.1        25         OUTLET    
SC6              0.014      0.2        0.02       0.1        25         OUTLET    
SC7              0.014      0.2        0.02       0.1        25         OUTLET    
SC8              0.014      0.2        0.02       0.1        25         OUTLET    
SC9              0.014      0.2        0.02       0.1        25         OUTLET    
SC10             0.014      0.2        0.02       0.1        25         OUTLET    
SC11             0.014      0.2        0.02       0.1        25         OUTLET    
SC12             0.014      0.2        0.02       0.1        25         OUTLET    
SC13             0.014      0.2        0.02       0.1        25         OUTLET    
SC14             0.014      0.2        0.02       0.1        25         OUTLET    
SC15             0.014      0.2        0.02       0.1        25         OUTLET    
SC16             0.014      0.2        0.02       0.1        25         OUTLET    
SC17             0.014      0.2        0.02       0.1        25         OUTLET    
SC18             0.014      0.2        0.02       0.1        25         OUTLET    
SC19             0.014      0.2        0.02       0.1        25         OUTLET    
SC20             0.014      0.2        0.02       0.1        25         OUTLET    
SC22             0.014      0.2        0.02       0.1        25         OUTLET    
SC23             0.014      0.2        0.02       0.1        25         OUTLET    
SC24             0.014      0.2        0.02       0.1        25         OUTLET    
SC25             0.014      0.2        0.02       0.1        25         OUTLET    
SC26             0.014      0.2        0.02       0.1        25         OUTLET    
SC27             0.014      0.2        0.02       0.1        25         OUTLET    
SC28             0.014      0.2        0.02       0.1        25         OUTLET    
SC29             0.014      0.2        0.02       0.1        25         OUTLET    
SC30             0.014      0.2        0.02       0.1        25         OUTLET    
SC31             0.014      0.2        0.02       0.1        25         OUTLET    
SC32             0.014      0.2        0.02       0.1        25         OUTLET    
SC33             0.014      0.2        0.02       0.1        25         OUTLET    
SC34             0.014      0.2        0.02       0.1        25         OUTLET    
SC35             0.014      0.2        0.02       0.1        25         OUTLET    
SC36             0.014      0.2        0.02       0.1        25         OUTLET    
SC37             0.014      0.2        0.02       0.1        25         OUTLET    
SC38             0.014      0.2        0.02       0.1        25         OUTLET    
SC39             0.014      0.2        0.02       0.1        25         OUTLET    
SC40             0.014      0.2        0.02       0.1        25         OUTLET    
SC41             0.014      0.2        0.02       0.1        25         OUTLET    
SC42             0.014      0.2        0.02       0.1        25         OUTLET    
SC43             0.014      0.2        0.02       0.1        25         OUTLET    
SC44             0.014      0.2        0.02       0.1        25         OUTLET    
SC45             0.014      0.2        0.02       0.1        25         OUTLET    
SC46             0.014      0.2        0.02       0.1        25         OUTLET    
SC47             0.014      0.2        0.02       0.1        25         OUTLET    
SC48             0.014      0.2        0.02       0.1        25         OUTLET    
SC49             0.014      0.2        0.02       0.1        25         OUTLET    
SC50             0.014      0.2        0.02       0.1        25         OUTLET    
SC51             0.014      0.2        0.02       0.1        25         OUTLET    
SC52             0.014      0.2        0.02       0.1        25         OUTLET    
SC53             0.014      0.2        0.02       0.1        25         OUTLET    
SC54             0.014      0.2        0.02       0.1        25         OUTLET    
SC55             0.014      0.2        0.02       0.1        25         OUTLET    
SC56             0.014      0.2        0.02       0.1        25         OUTLET    
SC57             0.014      0.2        0.02       0.1        25         OUTLET    
SC58             0.014      0.2        0.02       0.1        25         OUTLET    
SC59             0.014      0.2        0.02       0.1        25         OUTLET    
SC60             0.014      0.2        0.02       0.1        25         OUTLET    
SC61             0.014      0.2        0.02       0.1        25         OUTLET    
SC62             0.014      0.2        0.02       0.1        25         OUTLET    
SC63             0.014      0.2        0.02       0.1        25         OUTLET    
SC64             0.014      0.2        0.02       0.1        25         OUTLET    
SC65             0.014      0.2        0.02       0.1        25         OUTLET    
SC66             0.014      0.2        0.02       0.1        25         OUTLET    
SC67             0.014      0.2        0.02       0.1        25         OUTLET    
SC68             0.014      0.2        0.02       0.1        25         OUTLET    
SC69             0.014      0.2        0.02       0.1        25         OUTLET    
SC70             0.014      0.2        0.02       0.1        25         OUTLET    
SC71             0.014      0.2        0.02       0.1        25         OUTLET    
SC72             0.014      0.2        0.02       0.1        25         OUTLET    
SC73             0.014      0.2        0.02       0.1        25         OUTLET    
SC74             0.014      0.2        0.02       0.1        25         OUTLET    
SC75             0.014      0.2        0.02       0.1        25         OUTLET    
SC76             0.014      0.2        0.02       0.1        25         OUTLET    
SC77             0.014      0.2        0.02       0.1        25         OUTLET    
SC78             0.014      0.2        0.02       0.1        25         OUTLET    
SC79             0.014      0.2        0.02       0.1        25         OUTLET    
SC80             0.014      0.2        0.02       0.1        25         OUTLET    
SC81             0.014      0.2        0.02       0.1        25         OUTLET    
SC82             0.014      0.2        0.02       0.1        25         OUTLET    
SC83             0.014      0.2        0.02       0.1        25         OUTLET    
SC84             0.014      0.2        0.02       0.1        25         OUTLET    
SC85             0.014      0.2        0.02       0.1        25         OUTLET    
SC86             0.014      0.2        0.02       0.1        25         OUTLET    
SC87             0.014      0.2        0.02       0.1        25         OUTLET    
SC88             0.014      0.2        0.02       0.1        25         OUTLET    
SC89             0.014      0.2        0.02       0.1        25         OUTLET    
SC90             0.014      0.2        0.02       0.1        25         OUTLET    
SC91             0.014      0.2        0.02       0.1        25         OUTLET    
SC92             0.014      0.2        0.02       0.1        25         OUTLET    
SC93             0.014      0.2        0.02       0.1        25         OUTLET    
SC94             0.014      0.2        0.02       0.1        25         OUTLET    
SC95             0.014      0.2        0.02       0.1        25         OUTLET    
SC96             0.014      0.2        0.02       0.1        25         OUTLET    
SC97             0.014      0.2        0.02       0.1        25         OUTLET    
SC98             0.014      0.2        0.02       0.1        25         OUTLET    
SC99             0.014      0.2        0.02       0.1        25         OUTLET    


[INFILTRATION]
;;Subcatchment   Param1     Param2     Param3     Param4     Param5    
;;-------------- ---------- ---------- ---------- ---------- ----------
SC0              3.0        0.5        4          7          0         
SC1              3.0        0.5        4          7          0         
SC2              3.0        0.5        4          7          0         
SC3              3.0        0.5        4          7          0         
SC4              3.0        0.5        4          7          0         
SC5              3.0        0.5        4          7          0         
SC6              3.0        0.5        4          7          0         
SC7              3.0        0.5        4          7          0         
SC8              3.0        0.5        4          7          0         
SC9              3.0        0.5        4          7          0         
SC10             3.0        0.5        4          7          0         
SC11             3.0        0.5        4          7          0         
SC12             3.0        0.5        4          7          0         
SC13             3.0        0.5        4          7          0         
SC14             3.0        0.5        4          7          0         
SC15             3.0        0.5        4          7          0         
SC16             3.0        0.5        4          7          0         
SC17             3.0        0.5        4          7          0         
SC18             3.0        0.5        4          7          0         
SC19             3.0        0.5        4          7          0         
SC20             3.0        0.5        4          7          0         
SC22             3.0        0.5        4          7          0         
SC23             3.0        0.5        4          7          0         
SC24             3.0        0.5        4          7          0         
SC25             3.0        0.5        4          7          0         
SC26             3.0        0.5        4          7          0         
SC27             3.0        0.5        4          7          0         
SC28             3.0        0.5        4          7          0         
SC29             3.0        0.5        4          7          0         
SC30             3.0        0.5        4          7          0         
SC31             3.0        0.5        4          7          0         
SC32             3.0        0.5        4          7          0         
SC33             3.0        0.5        4          7          0         
SC34             3.0        0.5        4          7          0         
SC35             3.0        0.5        4          7          0         
SC36             3.0        0.5        4          7          0         
SC37             3.0        0.5        4          7          0         
SC38             3.0        0.5        4          7          0         
SC39             3.0        0.5        4          7          0         
SC40             3.0        0.5        4          7          0         
SC41             3.0        0.5        4          7          0         
SC42             3.0        0.5        4          7          0         
SC43             3.0        0.5        4          7          0         
SC44             3.0        0.5        4          7          0         
SC45             3.0        0.5        4          7          0         
SC46             3.0        0.5        4          7          0         
SC47             3.0        0.5        4          7          0         
SC48             3.0        0.5        4          7          0         
SC49             3.0        0.5        4          7          0         
SC50             3.0        0.5        4          7          0         
SC51             3.0        0.5        4          7          0         
SC52             3.0        0.5        4          7          0         
SC53             3.0        0.5        4          7          0         
SC54             3.0        0.5        4          7          0         
SC55             3.0        0.5        4          7          0         
SC56             3.0        0.5        4          7          0         
SC57             3.0        0.5        4          7          0         
SC58             3.0        0.5        4          7          0         
SC59             3.0        0.5        4          7          0         
SC60             3.0        0.5        4          7          0         
SC61             3.0        0.5        4          7          0         
SC62             3.0        0.5        4          7          0         
SC63             3.0        0.5        4          7          0         
SC64             3.0        0.5        4          7          0         
SC65             3.0        0.5        4          7          0         
SC66             3.0        0.5        4          7          0         
SC67             3.0        0.5        4          7          0         
SC68             3.0        0.5        4          7          0         
SC69             3.0        0.5        4          7          0         
SC70             3.0        0.5        4          7          0         
SC71             3.0        0.5        4          7          0         
SC72             3.0        0.5        4          7          0         
SC73             3.0        0.5        4          7          0         
SC74             3.0        0.5        4          7          0         
SC75             3.0        0.5        4          7          0         
SC76             3.0        0.5        4          7          0         
SC77             3.0        0.5        4          7          0         
SC78             3.0        0.5        4          7          0         
SC79             3.0        0.5        4          7          0         
SC80             3.0        0.5        4          7          0         
SC81             3.0        0.5        4          7          0         
SC82             3.0        0.5        4          7          0         
SC83             3.0        0.5        4          7          0         
SC84             3.0        0.5        4          7          0         
SC85             3.0        0.5        4          7          0         
SC86             3.0        0.5        4          7          0         
SC87             3.0        0.5        4          7          0         
SC88             3.0        0.5        4          7          0         
SC89             3.0        0.5        4          7          0         
SC90             3.0        0.5        4          7          0         
SC91             3.0        0.5        4          7          0         
SC92             3.0        0.5        4          7          0         
SC93             3.0        0.5        4          7          0         
SC94             3.0        0.5        4          7          0         
SC95             3.0        0.5        4          7          0         
SC96             3.0        0.5        4          7          0         
SC97             3.0        0.5        4          7          0         
SC98             3.0        0.5        4          7          0         
SC99             3.0        0.5        4          7          0         


[LID_CONTROLS]
;;Name           Type/Layer Parameters
;;-------------- ---------- ----------
bioret_cell      BC         
bioret_cell      SURFACE    9          0.1        0.1        1.0        5          
bioret_cell      SOIL       24         0.43       0.4        0.18       1.5        40         3.5        
bioret_cell      STORAGE    0          0.25       1.3        0          
bioret_cell      DRAIN      0          0.5        6          6          0          0          

[LID_USAGE]
;;Subcatchment   LID Process      Number  Area       Width      InitSat    FromImp    ToPerv     RptFile                  DrainTo          FromPerv  
;;-------------- ---------------- ------- ---------- ---------- ---------- ---------- ---------- ------------------------ ---------------- ----------
SC28             bioret_cell      1       4356.0     200        0.5        100        0          *                        *                100       
SC39             bioret_cell      1       4356.0     200        0.5        100        0          *                        *                100       
SC68             bioret_cell      1       4356.0     200        0.5        100        0          *                        *                100       
SC77             bioret_cell      1       4356.0     200        0.5        100        0          *                        *                100       
SC80             bioret_cell      1       4356.0     200        0.5        100        0          *                        *                100       
SC86             bioret_cell      1       4356.0     200        0.5        100        0          *                        *                100       


[SNOWPACKS]
;;Name           Surface    Parameters
;;-------------- ---------- ----------
NoPlow           PLOWABLE   1          2          3          0.10       0          0.00       0.0   

[JUNCTIONS]
;;Name           Elevation  MaxDepth   InitDepth  SurDepth   Aponded   
;;-------------- ---------- ---------- ---------- ---------- ----------
0                91.6       10         0          0          0          
1                93.2       10         0          0          0          
2                94.8       10         0          0          0          
3                96.4       10         0          0          0          